open command "C:\Users\CsungaBro\Google Drive\TU Braunschweig\3. Semester\COURSE 0 - Studienarbeit\33-dl-sim\dl-simulation\ls-dyna-automatization\template\base-files\inp_8-3.cfile"
