$# LS-PrePost command file created by LS-PrePost(R) V4.7.17 - 08Jul2020 -64bit-Window
$# Created on Mar-18-2022 (11:54:37)
open command "C:\Users\CsungaBro\Google Drive\TU Braunschweig\3. Semester\COURSE 0 - Studienarbeit\33-dl-sim\dl-simulation\ls-dyna-automatization\template\base-files\inp_8-3.cfile"
