$# LS-DYNA Keyword file created by LS-PrePost(R) V4.7.17 - 08Jul2020
$# Created on Mar-29-2022 (10:29:33)
*KEYWORD
*PARAMETER
$#   prmr1      val1     prmr2      val2     prmr3      val3     prmr4      val4
R end     23                                                                    
R tsf     100                                                                   
R valdmp  1000                                                                  
R vel     1.0                                                                   
R way1    21                                                                    
R WkzT    80                                                                    
R OrgT    250                                                                   
*TITLE
$#                                                                         title
LS-DYNA keyword deck by LS-PrePost
*BOUNDARY_PRESCRIBED_MOTION_RIGID_ID
$#      id                                                               heading
         0Stempel
$#     pid       dof       vad      lcid        sf       vid     death     birth
         1         3         0         1      -1.0         01.00000E28       0.0
*BOUNDARY_SPC_SYMMETRY_PLANE
$#    idsp       pid         x         y         z        vx        vy        vz
         1         1       0.0       0.0       0.0       0.0       1.0       0.0
$#     tol   
       0.1
         2         1       0.0       0.0       0.0       1.0       0.0       0.0
       0.1
         3         2       0.0       0.0       0.0       1.0       0.0       0.0
       0.1
         4         2       0.0       0.0       0.0       0.0       1.0       0.0
       0.1
         5         3       0.0       0.0       0.0       0.0       1.0       0.0
       0.1
         6         3       0.0       0.0       0.0       1.0       0.0       0.0
       0.1
*CONTACT_AUTOMATIC_SINGLE_SURFACE_ID
$#     cid                                                                 title
         1Self contact Blech
$#    ssid      msid     sstyp     mstyp    sboxid    mboxid       spr       mpr
         3         0         3         0         0         0         0         0
$#      fs        fd        dc        vc       vdc    penchk        bt        dt
       0.3       0.2       1.0       0.0      70.0         0       0.01.00000E20
$#     sfs       sfm       sst       mst      sfst      sfmt       fsf       vsf
       1.0       1.0       0.0       0.0       1.0       1.0       1.0       1.0
$#    soft    sofscl    lcidab    maxpar     sbopt     depth     bsort    frcfrq
         2       0.4         0     1.025       2.0         5      1000         1
*CONTACT_AUTOMATIC_SURFACE_TO_SURFACE_ID
$#     cid                                                                 title
         2Stempel_Blech
$#    ssid      msid     sstyp     mstyp    sboxid    mboxid       spr       mpr
         3         1         3         3         0         0         1         1
$#      fs        fd        dc        vc       vdc    penchk        bt        dt
       0.3       0.2       1.0       0.0      70.0         0       0.01.00000E20
$#     sfs       sfm       sst       mst      sfst      sfmt       fsf       vsf
       1.0       1.0       0.0       0.0       1.0       1.0       1.0       1.0
$#    soft    sofscl    lcidab    maxpar     sbopt     depth     bsort    frcfrq
         2       0.4         0     1.025       2.0         5      1000         1
*CONTACT_AUTOMATIC_SURFACE_TO_SURFACE_ID
$#     cid                                                                 title
         3Matrize_Blech
$#    ssid      msid     sstyp     mstyp    sboxid    mboxid       spr       mpr
         3         2         3         3         0         0         1         1
$#      fs        fd        dc        vc       vdc    penchk        bt        dt
       0.3       0.2       1.0       0.0      70.0         0       0.01.00000E20
$#     sfs       sfm       sst       mst      sfst      sfmt       fsf       vsf
       1.0       1.0       0.0       0.0       1.0       1.0       1.0       1.0
$#    soft    sofscl    lcidab    maxpar     sbopt     depth     bsort    frcfrq
         2       0.4         0     1.025       2.0         5      1000         1
*CONTROL_CONTACT
$#  slsfac    rwpnal    islchk    shlthk    penopt    thkchg     orien    enmass
       0.1       0.0         2         1         1         0         1         0
$#  usrstr    usrfrc     nsbcs    interm     xpene     ssthk      ecdt   tiedprj
         0         0         0         0       4.0         0         1         0
$#   sfric     dfric       edc       vfc        th     th_sf    pen_sf      
       0.0       0.0       0.0       0.0       0.0       0.0       0.0
$#  ignore    frceng   skiprwg    outseg   spotstp   spotdel   spothin       
         0         0         0         0         0         0       0.0
$#    isym    nserod    rwgaps    rwgdth     rwksf      icov    swradf    ithoff
         0         0         1       0.0       1.0         0       0.0         0
$#  shledg    pstiff    ithcnt    tdcnof     ftall    unused    shltrw    igactc
         0         0         0         0         0                 0.0         0
*CONTROL_ENERGY
$#    hgen      rwen    slnten     rylen     irgen     
         2         2         2         1         2
*CONTROL_HOURGLASS
$#     ihq        qh  
         8       0.1
*CONTROL_SHELL
$#  wrpang     esort     irnxx    istupd    theory       bwc     miter      proj
      70.0         0        -1         1        16         2         1         0
$# rotascl    intgrd    lamsht    cstyp6    thshel      
       1.0         0         0         1         1
$# psstupd   sidt4tu     cntco    itsflg    irquad    w-mode   stretch      icrq
         0         0         0         0         2       0.0       0.0         0
$#  nfail1    nfail4   psnfail    keepcs     delfr   drcpsid    drcprm   intperr
         0         0         0         0         0         0       1.0         0
*CONTROL_SOLUTION
$#    soln       nlq     isnan     lcint     lcacc     ncdcf     
         0         0         0       100         0         1
*CONTROL_TERMINATION
$#  endtim    endcyc     dtmin    endeng    endmas     nosol     
&end               0       0.0       0.01.000000E8         0
*CONTROL_TIMESTEP
$#  dtinit    tssfac      isdo    tslimt     dt2ms      lctm     erode     ms1st
       0.1       0.9         0       0.0       0.0         0         0         0
$#  dt2msf   dt2mslc     imscl    unused    unused     rmscl    unused      ihdo
       0.0         0         0                           0.0                   0
*DAMPING_GLOBAL
$#    lcid    valdmp       stx       sty       stz       srx       sry       srz
         0&valdmp          0.0       0.0       0.0       0.0       0.0       0.0
*DATABASE_BNDOUT
$#      dt    binary      lcur     ioopt     
       1.0         0         0         1
*DATABASE_ELOUT
$#      dt    binary      lcur     ioopt   option1   option2   option3   option4
       1.0         1         0         1         0        23         0         0
*DATABASE_GLSTAT
$#      dt    binary      lcur     ioopt     
       1.0         0         0         1
*DATABASE_MATSUM
$#      dt    binary      lcur     ioopt     
       1.0         0         0         1
*DATABASE_NCFORC
$#      dt    binary      lcur     ioopt     
       1.0         0         0         1
*DATABASE_RCFORC
$#      dt    binary      lcur     ioopt     
       1.0         0         0         1
*DATABASE_RWFORC
$#      dt    binary      lcur     ioopt     
       1.0         0         0         1
*DATABASE_SPCFORC
$#      dt    binary      lcur     ioopt     
       1.0         0         0         1
*DATABASE_TPRINT
$#      dt    binary      lcur     ioopt     
       1.0         0         0         1
*DATABASE_BINARY_D3PLOT
$#      dt      lcdt      beam     npltc    psetid      
       1.0         0         0         0         0
$#   ioopt      rate    cutoff    window      type      pset    
         0       0.0       0.0       0.0         0         0
*DATABASE_EXTENT_BINARY
$#   neiph     neips    maxint    strflg    sigflg    epsflg    rltflg    engflg
         0        39         3         0         1         1         1         1
$#  cmpflg    ieverp    beamip     dcomp      shge     stssz    n3thdt   ialemat
         0         0         0         1         1         1         2         1
$# nintsld   pkp_sen      sclp     hydro     msscl     therm    intout    nodout
         0         0       1.0         0         0         0                    
$#    dtdt    resplt     neipb     quadr     cubic     
         0         0         0         0         0
*DATABASE_HISTORY_SHELL_SET
$#     id1       id2       id3       id4       id5       id6       id7       id8
         1         0         0         0         0         0         0         0
*DEFINE_TABLE_TITLE
Stress-Strain
$#    tbid       sfa      offa    
       100
$#             value      lcid    
                24.0        10
               140.0        20
               200.0        30
               230.0        40
               240.0        50
               250.0        60
               260.0        70
*DEFINE_CURVE_TITLE
24_0起stress-strain
$#    lcid      sidr       sfa       sfo      offa      offo    dattyp     lcint
        10         0       1.0     0.001       0.0       0.0         0         0
$#                a1                  o1  
                 0.0                 0.0
            0.010101            178.7882
            0.020202            357.5806
            0.030303            536.3762
            0.040404            715.1694
            0.050505            893.9551
           0.0606061            1072.728
           0.0707071            1251.483
           0.0808081            1430.216
           0.0909091             1608.92
           0.1010101            1787.591
           0.1111111            1966.225
           0.1212121            2144.814
           0.1313131            2323.356
           0.1414141            2501.844
           0.1515152            2680.273
           0.1616162            2858.639
           0.1717172            3036.936
           0.1818182            3215.159
           0.1919192            3393.303
$ ... 80 like lines cut
*DEFINE_CURVE_TITLE
140_0起stress-strain
$#    lcid      sidr       sfa       sfo      offa      offo    dattyp     lcint
        20         0       1.0     0.001       0.0       0.0         0         0
$#                a1                  o1  
                 0.0                 0.0
            0.010101            162.6116
            0.020202            325.2231
            0.030303            487.8347
            0.040404            650.4463
            0.050505            813.0579
           0.0606061            975.6694
           0.0707071            1138.281
           0.0808081            1300.893
           0.0909091            1463.504
           0.1010101            1626.116
           0.1111111            1788.727
           0.1212121            1951.339
           0.1313131             2113.95
           0.1414141            2276.562
           0.1515152            2439.174
           0.1616162            2601.785
           0.1717172            2764.396
           0.1818182            2927.008
           0.1919192             3089.62
$ ... 80 like lines cut
*DEFINE_CURVE_TITLE
200_0起stress-strain
$#    lcid      sidr       sfa       sfo      offa      offo    dattyp     lcint
        30         0       1.0     0.001       0.0       0.0         0         0
$#                a1                  o1  
                 0.0                 0.0
    1.9999999495e-04             2.93724
    3.9999998990e-04            5.874481
    6.0000002850e-04            8.811721
    7.9999997979e-04            11.74896
              0.0011             16.6372
              0.0023             33.3763
              0.0034             50.0346
              0.0045             66.6289
              0.0057             83.3362
              0.0068             99.9857
              0.0079            116.7023
              0.0091            133.3503
              0.0102            150.0279
              0.0113            166.6991
              0.0125            183.2833
              0.0136            200.0363
              0.0147            216.7249
              0.0159            233.3114
               0.017            250.0381
$ ... 79 like lines cut
*DEFINE_CURVE_TITLE
230_0起stress-strain
$#    lcid      sidr       sfa       sfo      offa      offo    dattyp     lcint
        40         0       1.0     0.001       0.0       0.0         0         0
$#                a1                  o1  
                 0.0                 0.0
            0.010101             37.2576
            0.020202            74.52418
            0.030303            111.8178
            0.040404             149.154
            0.050505            186.5484
           0.0606061            224.0166
           0.0707071            261.5742
           0.0808081            299.2368
           0.0909091              337.02
           0.1010101            374.9394
           0.1111111            413.0105
           0.1212121             451.249
           0.1313131            489.6704
           0.1414141            528.2904
           0.1515152            567.1245
           0.1616162            606.1884
           0.1717172            645.4976
           0.1818182            685.0676
           0.1919192            724.9142
$ ... 80 like lines cut
*DEFINE_CURVE_TITLE
240_0起stress-strain
$#    lcid      sidr       sfa       sfo      offa      offo    dattyp     lcint
        50         0       1.0     0.001       0.0       0.0         0         0
$#                a1                  o1  
                 0.0                 0.0
            0.010101             37.2576
            0.020202            74.52418
            0.030303            111.8178
            0.040404             149.154
            0.050505            186.5484
           0.0606061            224.0166
           0.0707071            261.5742
           0.0808081            299.2368
           0.0909091              337.02
           0.1010101            374.9394
           0.1111111            413.0105
           0.1212121             451.249
           0.1313131            489.6704
           0.1414141            528.2904
           0.1515152            567.1245
           0.1616162            606.1884
           0.1717172            645.4976
           0.1818182            685.0676
           0.1919192            724.9142
$ ... 80 like lines cut
*DEFINE_CURVE_TITLE
250_0起stress-strain
$#    lcid      sidr       sfa       sfo      offa      offo    dattyp     lcint
        60         0       1.0     0.001       0.0       0.0         0         0
$#                a1                  o1  
                 0.0                 0.0
            0.010101             37.2576
            0.020202            74.52418
            0.030303            111.8178
            0.040404             149.154
            0.050505            186.5484
           0.0606061            224.0166
           0.0707071            261.5742
           0.0808081            299.2368
           0.0909091              337.02
           0.1010101            374.9394
           0.1111111            413.0105
           0.1212121             451.249
           0.1313131            489.6704
           0.1414141            528.2904
           0.1515152            567.1245
           0.1616162            606.1884
           0.1717172            645.4976
           0.1818182            685.0676
           0.1919192            724.9142
$ ... 80 like lines cut
*DEFINE_CURVE_TITLE
260_0起stress-strain
$#    lcid      sidr       sfa       sfo      offa      offo    dattyp     lcint
        70         0       1.0     0.001       0.0       0.0         0         0
$#                a1                  o1  
                 0.0                 0.0
            0.010101             37.2576
            0.020202            74.52418
            0.030303            111.8178
            0.040404             149.154
            0.050505            186.5484
           0.0606061            224.0166
           0.0707071            261.5742
           0.0808081            299.2368
           0.0909091              337.02
           0.1010101            374.9394
           0.1111111            413.0105
           0.1212121             451.249
           0.1313131            489.6704
           0.1414141            528.2904
           0.1515152            567.1245
           0.1616162            606.1884
           0.1717172            645.4976
           0.1818182            685.0676
           0.1919192            724.9142
$ ... 80 like lines cut
*DEFINE_TABLE_TITLE
Shear Stress-Angle
$#    tbid       sfa      offa    
       200
$#             value      lcid    
                24.0        11
               140.0        21
               200.0        31
               230.0        41
               240.0        51
               250.0        61
               260.0        71
*DEFINE_CURVE_TITLE
24_45起shear stress-angle
$#    lcid      sidr       sfa       sfo      offa      offo    dattyp     lcint
        11         0       1.0     0.001       0.0       0.0         0         0
$#                a1                  o1  
                 0.0                 0.0
            0.010101            14.91495
            0.020202            19.98769
            0.030303            24.79437
            0.040404            29.10914
            0.050505            32.79034
           0.0606061            35.80408
           0.0707071            38.20581
           0.0808081            40.10663
           0.0909091            41.63995
           0.1010101            42.93462
           0.1111111            44.09756
           0.1212121            45.20729
           0.1313131            46.31509
           0.1414141            47.44917
           0.1515152            48.61985
           0.1616162            49.82526
           0.1717172            51.05676
           0.1818182            52.30296
           0.1919192            53.55209
$ ... 80 like lines cut
*DEFINE_CURVE_TITLE
140_45起shear stress-angle
$#    lcid      sidr       sfa       sfo      offa      offo    dattyp     lcint
        21         0       1.0     0.001       0.0       0.0         0         0
$#                a1                  o1  
                 0.0                 0.0
            0.010101             3.47298
            0.020202            5.119945
            0.030303            6.751886
            0.040404             8.33415
            0.050505            9.837028
           0.0606061            11.23914
           0.0707071            12.53175
           0.0808081            13.71658
           0.0909091            14.80257
           0.1010101             15.8036
           0.1111111            16.73475
           0.1212121            17.61089
           0.1313131            18.44486
           0.1414141            19.24709
           0.1515152            20.02526
           0.1616162            20.78446
           0.1717172            21.52791
           0.1818182            22.25714
           0.1919192            22.97268
$ ... 80 like lines cut
*DEFINE_CURVE_TITLE
200_45起shear stress-angle
$#    lcid      sidr       sfa       sfo      offa      offo    dattyp     lcint
        31         0       1.0     0.001       0.0       0.0         0         0
$#                a1                  o1  
                 0.0                 0.0
               0.002           0.3711175
               0.004            0.742235
               0.006            1.113353
               0.008             1.48447
                0.01            1.855588
               0.012            2.226705
            0.020202            3.830701
            0.030303            4.817749
            0.040404            5.764483
            0.050505             6.64531
           0.0606061            7.442159
           0.0707071            8.149834
           0.0808081            8.771188
           0.0909091            9.316629
           0.1010101            9.798908
           0.1111111            10.23189
           0.1212121            10.62823
           0.1313131            10.99914
           0.1414141            11.35333
$ ... 85 like lines cut
*DEFINE_CURVE_TITLE
230_45起shear stress-angle
$#    lcid      sidr       sfa       sfo      offa      offo    dattyp     lcint
        41         0       1.0     0.001       0.0       0.0         0         0
$#                a1                  o1  
                 0.0                 0.0
            0.010101    2.0126499294e-04
            0.020202    4.0253100451e-04
            0.030303    6.0379598290e-04
            0.040404    8.0506200902e-04
            0.050505           0.0010063
           0.0606061           0.0025852
           0.0707071           0.0027802
           0.0808081           0.0037861
           0.0909091           0.0058072
           0.1010101           0.0090477
           0.1111111           0.0137118
           0.1212121           0.0200039
           0.1313131           0.0281282
           0.1414141           0.0382889
           0.1515152           0.0506903
           0.1616162           0.0655366
           0.1717172           0.0830321
           0.1818182            0.103381
           0.1919192           0.1267877
$ ... 80 like lines cut
*DEFINE_CURVE_TITLE
240_45起shear stress-angle
$#    lcid      sidr       sfa       sfo      offa      offo    dattyp     lcint
        51         0       1.0     0.001       0.0       0.0         0         0
$#                a1                  o1  
                 0.0                 0.0
            0.010101    2.0126499294e-04
            0.020202    4.0253100451e-04
            0.030303    6.0379598290e-04
            0.040404    8.0506200902e-04
            0.050505           0.0010063
           0.0606061           0.0025852
           0.0707071           0.0027802
           0.0808081           0.0037861
           0.0909091           0.0058072
           0.1010101           0.0090477
           0.1111111           0.0137118
           0.1212121           0.0200039
           0.1313131           0.0281282
           0.1414141           0.0382889
           0.1515152           0.0506903
           0.1616162           0.0655366
           0.1717172           0.0830321
           0.1818182            0.103381
           0.1919192           0.1267877
$ ... 80 like lines cut
*DEFINE_CURVE_TITLE
250_45起shear stress-angle
$#    lcid      sidr       sfa       sfo      offa      offo    dattyp     lcint
        61         0       1.0     0.001       0.0       0.0         0         0
$#                a1                  o1  
                 0.0                 0.0
            0.010101    2.0126499294e-04
            0.020202    4.0253100451e-04
            0.030303    6.0379598290e-04
            0.040404    8.0506200902e-04
            0.050505           0.0010063
           0.0606061           0.0025852
           0.0707071           0.0027802
           0.0808081           0.0037861
           0.0909091           0.0058072
           0.1010101           0.0090477
           0.1111111           0.0137118
           0.1212121           0.0200039
           0.1313131           0.0281282
           0.1414141           0.0382889
           0.1515152           0.0506903
           0.1616162           0.0655366
           0.1717172           0.0830321
           0.1818182            0.103381
           0.1919192           0.1267877
$ ... 80 like lines cut
*DEFINE_CURVE_TITLE
260_45起shear stress-angle
$#    lcid      sidr       sfa       sfo      offa      offo    dattyp     lcint
        71         0       1.0     0.001       0.0       0.0         0         0
$#                a1                  o1  
                 0.0                 0.0
            0.010101    2.0126499294e-04
            0.020202    4.0253100451e-04
            0.030303    6.0379598290e-04
            0.040404    8.0506200902e-04
            0.050505           0.0010063
           0.0606061           0.0025852
           0.0707071           0.0027802
           0.0808081           0.0037861
           0.0909091           0.0058072
           0.1010101           0.0090477
           0.1111111           0.0137118
           0.1212121           0.0200039
           0.1313131           0.0281282
           0.1414141           0.0382889
           0.1515152           0.0506903
           0.1616162           0.0655366
           0.1717172           0.0830321
           0.1818182            0.103381
           0.1919192           0.1267877
$ ... 80 like lines cut
*DEFINE_CURVE_SMOOTH_TITLE
Verfahrweg 1
$#    lcid      sidr      dist    tstart      tend     trise        v0  
         1         0&way1            0.0       0.0       2.0&vel      
*DEFINE_CURVE_TITLE
Werkzeugtemperatur_Zeit
$#    lcid      sidr       sfa       sfo      offa      offo    dattyp     lcint
      1100         0       1.0       1.0       0.0       0.0         0         0
$#                a1                  o1  
                 0.0                 0.0
    1.0000000117e-07                80.0
              1000.0                80.0
*ELEMENT_SHELL
$#   eid     pid      n1      n2      n3      n4      n5      n6      n7      n8
       1       2      22     217      23       3       0       0       0       0
       2       2      23     217     218      24       0       0       0       0
       3       2      24     218     219      25       0       0       0       0
       4       2      25     219     220      26       0       0       0       0
       5       2      26     220     221      27       0       0       0       0
       6       2      27     221     222      28       0       0       0       0
       7       2      28     222     223      29       0       0       0       0
       8       2       4      29     223      34       0       0       0       0
       9       2      21     224     217      22       0       0       0       0
      10       2      34     223     230      35       0       0       0       0
      11       2      20     231     224      21       0       0       0       0
      12       2      35     230     237      36       0       0       0       0
      13       2      43     231      20       2       0       0       0       0
      14       2      42     232     231      43       0       0       0       0
      15       2      41     233     232      42       0       0       0       0
      16       2      40     234     233      41       0       0       0       0
      17       2      39     235     234      40       0       0       0       0
      18       2      38     236     235      39       0       0       0       0
      19       2      37     237     236      38       0       0       0       0
      20       2      36     237      37       5       0       0       0       0
$ ... 1789 like lines cut
*INTEGRATION_SHELL
$#    irid       nip      esop   failopt       
         1         2         0         0
$#       s        wf       pid   
     -0.05       0.5         0
      0.05       0.5         0
*MAT_RIGID_TITLE
Stempel
$#     mid        ro         e        pr         n    couple         m     alias
         17.83000E-6     207.0       0.3       0.0       0.0       0.0          
$#     cmo      con1      con2    
       1.0         4         7
$#lco or a1        a2        a3        v1        v2        v3  
       0.0       0.0       0.0       0.0       0.0       0.0
*MAT_RIGID_TITLE
Matrize
$#     mid        ro         e        pr         n    couple         m     alias
         27.83000E-6     207.0       0.3       0.0       0.0       0.0          
$#     cmo      con1      con2    
       1.0         7         7
$#lco or a1        a2        a3        v1        v2        v3  
       0.0       0.0       0.0       0.0       0.0       0.0
*MAT_REINFORCED_THERMOPLASTIC_TITLE
PA6/GF47%
$#     mid        ro        em      lcem       prm     lcprm    lcsigy      beta
         31.12000E-6     0.001         0      0.39         0         0       0.0
$#    nfib      aopt        xp        yp        zp        a1        a2        a3
         2       3.0       0.0       0.0       0.0       0.0       0.0       0.0
$#      v1        v2        v3        d1        d2        d3     mangl     
       0.0       1.0       0.0       0.0       0.0       0.0       0.0
$#    idf1     alph1       ef1     lcef1     g23_1     g31_1     
         1       0.0       0.0        40      0.34      0.34
$#     g12     lcg12    aloc12    gloc12    meth12      
       0.0        41       0.0       0.0         2
$#    idf2     alph2       ef2     lcef2     g23_2     g31_2     
         2      90.0       0.0        40      0.34      0.34
$#     g23     lcg23    aloc23    gloc23    meth23      
       0.0         0       0.0       0.0         0
$#    idf3     alph3       ef3     lcef3     g23_3     g31_3     
         0       0.0       0.0         0       0.0       0.0
$#   postv     
        15
*MAT_THERMAL_ISOTROPIC_TITLE
Werkzeug
$#    tmid       tro     tgrlc    tgmult      tlat      hlat    
         1       0.0       0.0       0.0       0.0       0.0
$#      hc        tc  
  569.6923    0.0168
*MAT_THERMAL_ISOTROPIC_TITLE
PA6
$#    tmid       tro     tgrlc    tgmult      tlat      hlat    
         21.82000E-6       0.0       0.0       0.0       0.0
$#      hc        tc  
    4855.05.00000E-7
*NODE
$#   nid               x               y               z      tc      rc  
       1            50.0            60.0            20.0       0       0
       2            65.0            50.0            30.0       0       0
       3            60.0            50.0            25.0       0       0
       4            50.0            60.0            25.0       0       0
       5            50.0            65.0            30.0       0       0
       6            50.0            50.0            10.0       0       0
       7            60.0            50.0            20.0       0       0
       8             0.0            65.0            30.0       0       0
       9             0.0            60.0            25.0       0       0
      10             0.0            50.0            10.0       0       0
      11             0.0            60.0            20.0       0       0
      12            60.0             0.0            25.0       0       0
      13            65.0             0.0            30.0       0       0
      14            50.0             0.0            10.0       0       0
      15            60.0             0.0            20.0       0       0
      16             0.0           120.0            30.0       0       0
      17           120.0             0.0            30.0       0       0
      18           120.0           120.0            30.0       0       0
      19             0.0             0.0            10.0       0       0
      20        63.08658            50.0         29.6194       0       0
$ ... 1925 like lines cut
*PART
$#                                                                         title
Stempel
$#     pid     secid       mid     eosid      hgid      grav    adpopt      tmid
         1         1         1         0         0         0         0         0
*SECTION_SHELL_TITLE
Stempel
$#   secid    elform      shrf       nip     propt   qr/irid     icomp     setyp
         1         2       1.0         2       1.0         0         0         1
$#      t1        t2        t3        t4      nloc     marea      idof    edgset
       0.1       0.1       0.1       0.1      -1.0       0.0       0.0         0
*PART
$#                                                                         title
Matrize
$#     pid     secid       mid     eosid      hgid      grav    adpopt      tmid
         2         2         2         0         0         0         0         0
*SECTION_SHELL_TITLE
Matrize
$#   secid    elform      shrf       nip     propt   qr/irid     icomp     setyp
         2         2       1.0         2       1.0         0         0         1
$#      t1        t2        t3        t4      nloc     marea      idof    edgset
       0.1       0.1       0.1       0.1       1.0       0.0       0.0         0
*PART
$#                                                                         title
Organoblech
$#     pid     secid       mid     eosid      hgid      grav    adpopt      tmid
         3         3         3         0         0         0         0         0
*SECTION_SHELL_TITLE
Organoblech
$#   secid    elform      shrf       nip     propt   qr/irid     icomp     setyp
         3        16       1.0         4       1.0        -1         0         1
$#      t1        t2        t3        t4      nloc     marea      idof    edgset
       2.0       2.0       2.0       2.0       0.0       0.0       0.0         0
*SET_NODE_LIST
$#     sid       da1       da2       da3       da4    solver      
         1       0.0       0.0       0.0       0.0MECH
$#    nid1      nid2      nid3      nid4      nid5      nid6      nid7      nid8
       685       686       687       688       689       690       691       692
       693       694       695       696       697       698       699       700
       701       702       703       704       705       706       707       708
       709       710       711       712       713       714       715       716
       717       718       719       720       721       722       723       724
       725       726       727       728       729       730       731       732
       733       734       735       736       737       738       739       740
       741       742       743       744       745       746       747       748
       749       750       751       752       753       754       755       756
       757       758       759       760       761       762       763       764
       765       766       767       768       769       770       771       772
       773       774       775       776       777       778       779       780
       781       782       783       784       785       786       787       788
       789       790       791       792       793       794       795       796
       797       798       799       800       801       802       803       804
       805       806       807       808       809       810       811       812
       813       814       815       816       817       818       819       820
       821       822       823       824       825       826       827       828
       829       830       831       832       833       834       835       836
       837       838       839       840       841       842       843       844
$ ... 45 like lines cut
*SET_NODE_LIST
$#     sid       da1       da2       da3       da4    solver      
         2       0.0       0.0       0.0       0.0MECH
$#    nid1      nid2      nid3      nid4      nid5      nid6      nid7      nid8
         1         2         3         4         5         6         7         8
         9        10        11        12        13        14        15        16
        17        18        19        20        21        22        23        24
        25        26        27        28        29        34        35        36
        37        38        39        40        41        42        43        48
        49        50        51        52        53        54        55        56
        57        58        59        60        61        62        63        64
        65        66        67        68        69        76        77        78
        79        80        81        82        83        84        85        86
        87        88        89        90        91        92        93        94
        95        96        97        98        99       100       101       102
       103       104       105       106       107       108       109       110
       111       112       113       114       121       122       123       124
       125       126       127       128       129       130       131       132
       133       134       135       136       137       138       139       140
       141       142       143       144       145       146       147       148
       149       150       151       152       153       154       157       158
       159       160       161       162       163       164       165       166
       167       168       169       170       171       172       173       174
       175       176       177       178       179       180       181       182
$ ... 61 like lines cut
*SET_NODE_LIST
$#     sid       da1       da2       da3       da4    solver      
         3       0.0       0.0       0.0       0.0MECH
$#    nid1      nid2      nid3      nid4      nid5      nid6      nid7      nid8
      1202      1203      1204      1205      1206      1207      1208      1209
      1210      1211      1212      1213      1214      1215      1216      1217
      1218      1219      1220      1221      1222      1223      1224      1225
      1226      1227      1228      1229      1230      1231      1232      1233
      1234      1235      1236      1237      1238      1239      1240      1241
      1242      1243      1244      1245      1246      1247      1248      1249
      1250      1251      1252      1253      1254      1255      1256      1257
      1258      1259      1260      1261      1262      1263      1264      1265
      1266      1267      1268      1269      1270      1271      1272      1273
      1274      1275      1276      1277      1278      1279      1280      1281
      1282      1283      1284      1285      1286      1287      1288      1289
      1290      1291      1292      1293      1294      1295      1296      1297
      1298      1299      1300      1301      1302      1303      1304      1305
      1306      1307      1308      1309      1310      1311      1312      1313
      1314      1315      1316      1317      1318      1319      1320      1321
      1322      1323      1324      1325      1326      1327      1328      1329
      1330      1331      1332      1333      1334      1335      1336      1337
      1338      1339      1340      1341      1342      1343      1344      1345
      1346      1347      1348      1349      1350      1351      1352      1353
      1354      1355      1356      1357      1358      1359      1360      1361
$ ... 78 like lines cut
*SET_SHELL_LIST
$#     sid       da1       da2       da3       da4   
         1       0.0       0.0       0.0       0.0
$#    eid1      eid2      eid3      eid4      eid5      eid6      eid7      eid8
      1081      1082      1083      1084      1085      1086      1087      1088
      1089      1090      1091      1092      1093      1094      1095      1096
      1097      1098      1099      1100      1101      1102      1103      1104
      1105      1106      1107      1108      1109      1110      1111      1112
      1113      1114      1115      1116      1117      1118      1119      1120
      1121      1122      1123      1124      1125      1126      1127      1128
      1129      1130      1131      1132      1133      1134      1135      1136
      1137      1138      1139      1140      1141      1142      1143      1144
      1145      1146      1147      1148      1149      1150      1151      1152
      1153      1154      1155      1156      1157      1158      1159      1160
      1161      1162      1163      1164      1165      1166      1167      1168
      1169      1170      1171      1172      1173      1174      1175      1176
      1177      1178      1179      1180      1181      1182      1183      1184
      1185      1186      1187      1188      1189      1190      1191      1192
      1193      1194      1195      1196      1197      1198      1199      1200
      1201      1202      1203      1204      1205      1206      1207      1208
      1209      1210      1211      1212      1213      1214      1215      1216
      1217      1218      1219      1220      1221      1222      1223      1224
      1225      1226      1227      1228      1229      1230      1231      1232
      1233      1234      1235      1236      1237      1238      1239      1240
$ ... 72 like lines cut
*END
